Conformer_3
     RDKit          3D

 39 40  0  0  0  0  0  0  0  0999 V2000
    2.0943   -1.0448   -0.5760 C   0  0  0  0  0  0  0  0  0  0  0  0
    2.5843   -2.3520   -0.6554 C   0  0  0  0  0  0  0  0  0  0  0  0
    3.7163   -2.7267    0.0789 C   0  0  0  0  0  0  0  0  0  0  0  0
    4.3522   -1.7894    0.8974 C   0  0  0  0  0  0  0  0  0  0  0  0
    3.8649   -0.4817    0.9807 C   0  0  0  0  0  0  0  0  0  0  0  0
    2.7404   -0.0894    0.2353 C   0  0  0  0  0  0  0  0  0  0  0  0
    2.2501    1.3042    0.3658 C   0  0  0  0  0  0  0  0  0  0  0  0
    1.5002    1.9131   -0.5629 C   0  0  0  0  0  0  0  0  0  0  0  0
    1.0052    3.2948   -0.3972 C   0  0  0  0  0  0  0  0  0  0  0  0
    1.2964    3.9636    0.6318 O   0  0  0  0  0  0  0  0  0  0  0  0
    0.1010    3.8958   -1.4314 C   0  0  0  0  0  0  0  0  0  0  0  0
   -1.3147    3.4664   -1.1871 C   0  0  0  0  0  0  0  0  0  0  0  0
   -2.0795    4.2133   -0.5175 O   0  0  0  0  0  0  0  0  0  0  0  0
   -1.7843    2.1561   -1.6811 C   0  0  0  0  0  0  0  0  0  0  0  0
   -3.0161    1.6938   -1.4271 C   0  0  0  0  0  0  0  0  0  0  0  0
   -3.5049    0.3727   -1.8909 C   0  0  0  0  0  0  0  0  0  0  0  0
   -4.8903    0.1661   -2.0001 C   0  0  0  0  0  0  0  0  0  0  0  0
   -5.3941   -1.0684   -2.4207 C   0  0  0  0  0  0  0  0  0  0  0  0
   -4.5226   -2.1172   -2.7260 C   0  0  0  0  0  0  0  0  0  0  0  0
   -3.1403   -1.9285   -2.6043 C   0  0  0  0  0  0  0  0  0  0  0  0
   -2.6321   -0.6951   -2.1851 C   0  0  0  0  0  0  0  0  0  0  0  0
   -5.0387   -3.3416   -3.1441 O   0  0  0  0  0  0  0  0  0  0  0  0
    4.2131   -4.0261    0.0056 O   0  0  0  0  0  0  0  0  0  0  0  0
    1.1987   -0.7995   -1.1302 H   0  0  0  0  0  0  0  0  0  0  0  0
    2.0780   -3.0752   -1.2822 H   0  0  0  0  0  0  0  0  0  0  0  0
    5.2246   -2.0750    1.4714 H   0  0  0  0  0  0  0  0  0  0  0  0
    4.3727    0.2284    1.6222 H   0  0  0  0  0  0  0  0  0  0  0  0
    2.5489    1.8585    1.2482 H   0  0  0  0  0  0  0  0  0  0  0  0
    1.2453    1.3989   -1.4790 H   0  0  0  0  0  0  0  0  0  0  0  0
    0.4240    3.5832   -2.4480 H   0  0  0  0  0  0  0  0  0  0  0  0
    0.1694    5.0049   -1.3913 H   0  0  0  0  0  0  0  0  0  0  0  0
   -1.0962    1.5721   -2.2761 H   0  0  0  0  0  0  0  0  0  0  0  0
   -3.7129    2.3218   -0.8837 H   0  0  0  0  0  0  0  0  0  0  0  0
   -5.5841    0.9650   -1.7676 H   0  0  0  0  0  0  0  0  0  0  0  0
   -6.4639   -1.2103   -2.5079 H   0  0  0  0  0  0  0  0  0  0  0  0
   -2.4585   -2.7396   -2.8266 H   0  0  0  0  0  0  0  0  0  0  0  0
   -1.5615   -0.5953   -2.0699 H   0  0  0  0  0  0  0  0  0  0  0  0
   -4.4331   -4.1216   -3.3714 H   0  0  0  0  0  0  0  0  0  0  0  0
    3.7737   -4.7288   -0.5775 H   0  0  0  0  0  0  0  0  0  0  0  0
  1  2  2  0
  2  3  1  0
  3  4  2  0
  4  5  1  0
  5  6  2  0
  6  7  1  0
  7  8  2  0
  8  9  1  0
  9 10  2  0
  9 11  1  0
 11 12  1  0
 12 13  2  0
 12 14  1  0
 14 15  2  0
 15 16  1  0
 16 17  2  0
 17 18  1  0
 18 19  2  0
 19 20  1  0
 20 21  2  0
 19 22  1  0
  3 23  1  0
  6  1  1  0
 21 16  1  0
  1 24  1  0
  2 25  1  0
  4 26  1  0
  5 27  1  0
  7 28  1  0
  8 29  1  0
 11 30  1  0
 11 31  1  0
 14 32  1  0
 15 33  1  0
 17 34  1  0
 18 35  1  0
 20 36  1  0
 21 37  1  0
 22 38  1  0
 23 39  1  0
M  END
>  <Energy>  (1) 
38.80

>  <GasteigerCharges>  (1) 
-0.0513, -0.0196, 0.1151, -0.0196, -0.0513, -0.0253, -0.0514, -0.0179, 0.1629, -0.2944, 0.0732, 0.1629, -0.2944, -0.0179, -0.0514, -0.0253, -0.0513, -0.0196, 0.1151, -0.0196, -0.0513, -0.5080, -0.5080, 0.0630, 0.0662, 0.0662, 0.0630, 0.0630, 0.0661, 0.0435, 0.0435, 0.0661, 0.0630, 0.0630, 0.0662, 0.0662, 0.0630, 0.2931, 0.2931

