Conformer_5
     RDKit          3D

 69 74  0  0  0  0  0  0  0  0999 V2000
   -1.0112    0.8737   -3.6791 O   0  0  0  0  0  0  0  0  0  0  0  0
   -0.1180    0.0648   -4.0447 C   0  0  0  0  0  0  0  0  0  0  0  0
    1.0965   -0.1476   -3.2300 C   0  0  0  0  0  0  0  0  0  0  0  0
    1.2964    0.5887   -2.0509 C   0  0  0  0  0  0  0  0  0  0  0  0
    2.4341    0.3826   -1.2673 C   0  0  0  0  0  0  0  0  0  0  0  0
    3.3957   -0.5635   -1.6507 C   0  0  0  0  0  0  0  0  0  0  0  0
    3.1992   -1.3041   -2.8260 C   0  0  0  0  0  0  0  0  0  0  0  0
    2.0593   -1.0997   -3.6172 C   0  0  0  0  0  0  0  0  0  0  0  0
    1.8798   -1.8485   -4.7804 O   0  0  0  0  0  0  0  0  0  0  0  0
    4.5777   -0.8535   -0.7587 C   0  0  0  0  0  0  0  0  0  0  0  0
    4.1816   -1.7818    0.3938 C   0  0  0  0  0  0  0  0  0  0  0  0
    3.6302   -3.0382   -0.1377 N   0  0  0  0  0  0  0  0  0  0  0  0
    2.8254   -3.7504    0.8637 C   0  0  0  0  0  0  0  0  0  0  0  0
    1.5028   -3.0599    1.0982 C   0  0  0  0  0  0  0  0  0  0  0  0
    0.9826   -2.9624    2.3986 C   0  0  0  0  0  0  0  0  0  0  0  0
   -0.2341   -2.3146    2.6255 C   0  0  0  0  0  0  0  0  0  0  0  0
   -0.9459   -1.7518    1.5563 C   0  0  0  0  0  0  0  0  0  0  0  0
   -0.4375   -1.8615    0.2545 C   0  0  0  0  0  0  0  0  0  0  0  0
    0.7667   -2.5313    0.0238 C   0  0  0  0  0  0  0  0  0  0  0  0
   -2.1859   -1.0684    1.7919 N   0  0  0  0  0  0  0  0  0  0  0  0
   -2.5038    0.1826    1.4374 C   0  0  0  0  0  0  0  0  0  0  0  0
   -1.7183    1.0816    0.7950 N   0  0  0  0  0  0  0  0  0  0  0  0
   -2.1944    2.3476    0.5742 C   0  0  0  0  0  0  0  0  0  0  0  0
   -3.4941    2.7011    1.0358 C   0  0  0  0  0  0  0  0  0  0  0  0
   -4.2782    1.7570    1.7244 C   0  0  0  0  0  0  0  0  0  0  0  0
   -3.7351    0.4935    1.9132 C   0  0  0  0  0  0  0  0  0  0  0  0
   -4.2525   -0.5465    2.5933 N   0  0  0  0  0  0  0  0  0  0  0  0
   -3.2693   -1.4862    2.5047 C   0  0  0  0  0  0  0  0  0  0  0  0
   -3.4117   -2.8417    3.0732 C   0  0  0  0  0  0  0  0  0  0  0  0
   -3.2549   -3.9543    2.2337 C   0  0  0  0  0  0  0  0  0  0  0  0
   -3.4004   -5.2445    2.7418 C   0  0  0  0  0  0  0  0  0  0  0  0
   -3.6989   -5.4161    4.0917 C   0  0  0  0  0  0  0  0  0  0  0  0
   -3.8454   -4.3330    4.8989 N   0  0  0  0  0  0  0  0  0  0  0  0
   -3.7138   -3.0588    4.4368 C   0  0  0  0  0  0  0  0  0  0  0  0
   -3.8398   -1.9748    5.3629 N   0  0  0  0  0  0  0  0  0  0  0  0
   -1.3261    3.3370   -0.1044 C   0  0  0  0  0  0  0  0  0  0  0  0
    0.0671    3.2935    0.0880 C   0  0  0  0  0  0  0  0  0  0  0  0
    0.9014    4.2063   -0.5638 C   0  0  0  0  0  0  0  0  0  0  0  0
    0.3543    5.1741   -1.4090 C   0  0  0  0  0  0  0  0  0  0  0  0
   -1.0271    5.2285   -1.6074 C   0  0  0  0  0  0  0  0  0  0  0  0
   -1.8661    4.3155   -0.9607 C   0  0  0  0  0  0  0  0  0  0  0  0
   -0.2593   -0.4803   -4.9688 H   0  0  0  0  0  0  0  0  0  0  0  0
    0.5646    1.3165   -1.7309 H   0  0  0  0  0  0  0  0  0  0  0  0
    2.5572    0.9480   -0.3519 H   0  0  0  0  0  0  0  0  0  0  0  0
    3.9242   -2.0542   -3.1186 H   0  0  0  0  0  0  0  0  0  0  0  0
    2.5574   -2.5398   -5.0780 H   0  0  0  0  0  0  0  0  0  0  0  0
    4.9721    0.0990   -0.3417 H   0  0  0  0  0  0  0  0  0  0  0  0
    5.4017   -1.3202   -1.3422 H   0  0  0  0  0  0  0  0  0  0  0  0
    5.0759   -1.9917    1.0230 H   0  0  0  0  0  0  0  0  0  0  0  0
    3.4385   -1.2488    1.0286 H   0  0  0  0  0  0  0  0  0  0  0  0
    4.4317   -3.6556   -0.4074 H   0  0  0  0  0  0  0  0  0  0  0  0
    2.6115   -4.7763    0.4934 H   0  0  0  0  0  0  0  0  0  0  0  0
    3.3999   -3.8535    1.8127 H   0  0  0  0  0  0  0  0  0  0  0  0
    1.5246   -3.3770    3.2397 H   0  0  0  0  0  0  0  0  0  0  0  0
   -0.6150   -2.2342    3.6356 H   0  0  0  0  0  0  0  0  0  0  0  0
   -0.9819   -1.4411   -0.5814 H   0  0  0  0  0  0  0  0  0  0  0  0
    1.1334   -2.6210   -0.9904 H   0  0  0  0  0  0  0  0  0  0  0  0
   -3.8794    3.7029    0.9007 H   0  0  0  0  0  0  0  0  0  0  0  0
   -5.2562    2.0125    2.1104 H   0  0  0  0  0  0  0  0  0  0  0  0
   -3.0359   -3.8224    1.1815 H   0  0  0  0  0  0  0  0  0  0  0  0
   -3.2845   -6.1036    2.0933 H   0  0  0  0  0  0  0  0  0  0  0  0
   -3.8148   -6.4112    4.5000 H   0  0  0  0  0  0  0  0  0  0  0  0
   -3.6802   -0.9806    5.0860 H   0  0  0  0  0  0  0  0  0  0  0  0
   -4.0773   -2.1708    6.3607 H   0  0  0  0  0  0  0  0  0  0  0  0
    0.5113    2.5513    0.7404 H   0  0  0  0  0  0  0  0  0  0  0  0
    1.9728    4.1617   -0.4146 H   0  0  0  0  0  0  0  0  0  0  0  0
    1.0013    5.8792   -1.9140 H   0  0  0  0  0  0  0  0  0  0  0  0
   -1.4479    5.9764   -2.2675 H   0  0  0  0  0  0  0  0  0  0  0  0
   -2.9310    4.3623   -1.1495 H   0  0  0  0  0  0  0  0  0  0  0  0
  1  2  2  0
  2  3  1  0
  3  4  2  0
  4  5  1  0
  5  6  2  0
  6  7  1  0
  7  8  2  0
  8  9  1  0
  6 10  1  0
 10 11  1  0
 11 12  1  0
 12 13  1  0
 13 14  1  0
 14 15  2  0
 15 16  1  0
 16 17  2  0
 17 18  1  0
 18 19  2  0
 17 20  1  0
 20 21  1  0
 21 22  2  0
 22 23  1  0
 23 24  2  0
 24 25  1  0
 25 26  2  0
 26 27  1  0
 27 28  2  0
 28 29  1  0
 29 30  2  0
 30 31  1  0
 31 32  2  0
 32 33  1  0
 33 34  2  0
 34 35  1  0
 23 36  1  0
 36 37  2  0
 37 38  1  0
 38 39  2  0
 39 40  1  0
 40 41  2  0
  8  3  1  0
 19 14  1  0
 28 20  1  0
 34 29  1  0
 41 36  1  0
 26 21  1  0
  2 42  1  0
  4 43  1  0
  5 44  1  0
  7 45  1  0
  9 46  1  0
 10 47  1  0
 10 48  1  0
 11 49  1  0
 11 50  1  0
 12 51  1  0
 13 52  1  0
 13 53  1  0
 15 54  1  0
 16 55  1  0
 18 56  1  0
 19 57  1  0
 24 58  1  0
 25 59  1  0
 30 60  1  0
 31 61  1  0
 32 62  1  0
 35 63  1  0
 35 64  1  0
 37 65  1  0
 38 66  1  0
 39 67  1  0
 40 68  1  0
 41 69  1  0
M  END
>  <Energy>  (1) 
124.46

>  <GasteigerCharges>  (1) 
-0.2977, 0.1533, 0.0561, -0.0477, -0.0580, -0.0430, -0.0162, 0.1259, -0.5072, -0.0151, -0.0005, -0.3123, 0.0205, -0.0340, -0.0557, -0.0376, 0.0492, -0.0376, -0.0557, -0.2766, 0.1651, -0.2278, 0.0728, -0.0334, -0.0303, 0.1088, -0.2260, 0.1502, 0.0600, -0.0460, -0.0429, 0.0293, -0.2390, 0.1339, -0.3831, 0.0002, -0.0528, -0.0616, -0.0622, -0.0616, -0.0528, 0.1101, 0.0632, 0.0626, 0.0665, 0.2931, 0.0329, 0.0329, 0.0431, 0.0431, 0.1225, 0.0479, 0.0479, 0.0627, 0.0645, 0.0645, 0.0627, 0.0647, 0.0648, 0.0632, 0.0639, 0.0841, 0.1578, 0.1578, 0.0630, 0.0623, 0.0623, 0.0623, 0.0630

