Conformer_3
     RDKit          3D

 65 69  0  0  0  0  0  0  0  0999 V2000
   -0.3098   -0.4577    4.3566 O   0  0  0  0  0  0  0  0  0  0  0  0
   -1.1595   -0.7286    5.4392 C   0  0  0  0  0  0  0  0  0  0  0  0
   -2.4074   -1.3648    5.2723 C   0  0  0  0  0  0  0  0  0  0  0  0
   -2.9137   -2.0499    3.6898 S   0  0  0  0  0  0  0  0  0  0  0  0
   -2.0901   -0.7617    2.6972 C   0  0  0  0  0  0  0  0  0  0  0  0
   -2.3901   -0.9768    1.2259 C   0  0  0  0  0  0  0  0  0  0  0  0
   -2.9351    0.0691    0.4612 C   0  0  0  0  0  0  0  0  0  0  0  0
   -3.1555   -0.0954   -0.9090 C   0  0  0  0  0  0  0  0  0  0  0  0
   -2.8309   -1.3022   -1.5347 C   0  0  0  0  0  0  0  0  0  0  0  0
   -3.0503   -1.4485   -2.9024 O   0  0  0  0  0  0  0  0  0  0  0  0
   -2.2864   -2.3503   -0.7821 C   0  0  0  0  0  0  0  0  0  0  0  0
   -2.0664   -2.1900    0.5889 C   0  0  0  0  0  0  0  0  0  0  0  0
   -0.5752   -0.8160    2.9979 C   0  0  0  0  0  0  0  0  0  0  0  0
    0.1963    0.1114    2.0860 C   0  0  0  0  0  0  0  0  0  0  0  0
    0.9140   -0.4068    0.9967 C   0  0  0  0  0  0  0  0  0  0  0  0
    1.5402    0.4502    0.0891 C   0  0  0  0  0  0  0  0  0  0  0  0
    1.4522    1.8465    0.2517 C   0  0  0  0  0  0  0  0  0  0  0  0
    2.0330    2.7530   -0.6506 O   0  0  0  0  0  0  0  0  0  0  0  0
    2.6218    2.4024   -1.9035 C   0  0  0  0  0  0  0  0  0  0  0  0
    1.5370    2.0281   -2.9223 C   0  0  0  0  0  0  0  0  0  0  0  0
    2.1360    1.6236   -4.2102 N   0  0  0  0  0  0  0  0  0  0  0  0
    2.8075    0.3160   -4.1338 C   0  0  0  0  0  0  0  0  0  0  0  0
    2.6390   -0.3408   -5.4938 C   0  0  0  0  0  0  0  0  0  0  0  0
    2.7345   -1.8702   -5.4225 C   0  0  0  0  0  0  0  0  0  0  0  0
    1.2734    0.1542   -5.9509 C   0  0  0  0  0  0  0  0  0  0  0  0
    1.1502    0.2327   -7.4775 C   0  0  0  0  0  0  0  0  0  0  0  0
    1.1227    1.5219   -5.2777 C   0  0  0  0  0  0  0  0  0  0  0  0
    0.7553    2.3606    1.3507 C   0  0  0  0  0  0  0  0  0  0  0  0
    0.1243    1.5038    2.2572 C   0  0  0  0  0  0  0  0  0  0  0  0
   -3.2736   -1.4939    6.3653 C   0  0  0  0  0  0  0  0  0  0  0  0
   -2.8870   -1.0395    7.6337 C   0  0  0  0  0  0  0  0  0  0  0  0
   -3.7388   -1.1750    8.7276 O   0  0  0  0  0  0  0  0  0  0  0  0
   -1.6329   -0.4464    7.8047 C   0  0  0  0  0  0  0  0  0  0  0  0
   -0.7756   -0.2898    6.7124 C   0  0  0  0  0  0  0  0  0  0  0  0
   -2.4886    0.2269    3.0202 H   0  0  0  0  0  0  0  0  0  0  0  0
   -3.1788    1.0182    0.9219 H   0  0  0  0  0  0  0  0  0  0  0  0
   -3.5737    0.7179   -1.4866 H   0  0  0  0  0  0  0  0  0  0  0  0
   -2.8137   -2.3043   -3.3896 H   0  0  0  0  0  0  0  0  0  0  0  0
   -2.0281   -3.2869   -1.2590 H   0  0  0  0  0  0  0  0  0  0  0  0
   -1.6302   -3.0065    1.1502 H   0  0  0  0  0  0  0  0  0  0  0  0
   -0.2180   -1.8604    2.8540 H   0  0  0  0  0  0  0  0  0  0  0  0
    0.9704   -1.4762    0.8351 H   0  0  0  0  0  0  0  0  0  0  0  0
    2.0761    0.0129   -0.7405 H   0  0  0  0  0  0  0  0  0  0  0  0
    3.3599    1.5859   -1.7631 H   0  0  0  0  0  0  0  0  0  0  0  0
    3.1783    3.2831   -2.2875 H   0  0  0  0  0  0  0  0  0  0  0  0
    0.9033    2.9306   -3.0737 H   0  0  0  0  0  0  0  0  0  0  0  0
    0.8757    1.2268   -2.5241 H   0  0  0  0  0  0  0  0  0  0  0  0
    3.8868    0.4566   -3.9093 H   0  0  0  0  0  0  0  0  0  0  0  0
    2.3570   -0.3277   -3.3424 H   0  0  0  0  0  0  0  0  0  0  0  0
    3.4337    0.0443   -6.1726 H   0  0  0  0  0  0  0  0  0  0  0  0
    2.6188   -2.3038   -6.4375 H   0  0  0  0  0  0  0  0  0  0  0  0
    1.9468   -2.2904   -4.7613 H   0  0  0  0  0  0  0  0  0  0  0  0
    3.7290   -2.1683   -5.0273 H   0  0  0  0  0  0  0  0  0  0  0  0
    0.4754   -0.5190   -5.5612 H   0  0  0  0  0  0  0  0  0  0  0  0
    1.2584   -0.7798   -7.9203 H   0  0  0  0  0  0  0  0  0  0  0  0
    1.9311    0.8967   -7.9066 H   0  0  0  0  0  0  0  0  0  0  0  0
    0.1509    0.6310   -7.7537 H   0  0  0  0  0  0  0  0  0  0  0  0
    1.3035    2.3464   -6.0012 H   0  0  0  0  0  0  0  0  0  0  0  0
    0.0795    1.6305   -4.8988 H   0  0  0  0  0  0  0  0  0  0  0  0
    0.6839    3.4320    1.4906 H   0  0  0  0  0  0  0  0  0  0  0  0
   -0.4366    1.9261    3.0814 H   0  0  0  0  0  0  0  0  0  0  0  0
   -4.2373   -1.9706    6.2350 H   0  0  0  0  0  0  0  0  0  0  0  0
   -4.6536   -1.6021    8.6380 H   0  0  0  0  0  0  0  0  0  0  0  0
   -1.3274   -0.0946    8.7827 H   0  0  0  0  0  0  0  0  0  0  0  0
    0.1812    0.1982    6.8485 H   0  0  0  0  0  0  0  0  0  0  0  0
  1  2  1  0
  2  3  2  0
  3  4  1  0
  4  5  1  0
  5  6  1  0
  6  7  2  0
  7  8  1  0
  8  9  2  0
  9 10  1  0
  9 11  1  0
 11 12  2  0
  5 13  1  0
 13 14  1  0
 14 15  2  0
 15 16  1  0
 16 17  2  0
 17 18  1  0
 18 19  1  0
 19 20  1  0
 20 21  1  0
 21 22  1  0
 22 23  1  0
 23 24  1  0
 23 25  1  0
 25 26  1  0
 25 27  1  0
 17 28  1  0
 28 29  2  0
  3 30  1  0
 30 31  2  0
 31 32  1  0
 31 33  1  0
 33 34  2  0
 12  6  1  0
 13  1  1  0
 27 21  1  0
 29 14  1  0
 34  2  1  0
  5 35  1  0
  7 36  1  0
  8 37  1  0
 10 38  1  0
 11 39  1  0
 12 40  1  0
 13 41  1  0
 15 42  1  0
 16 43  1  0
 19 44  1  0
 19 45  1  0
 20 46  1  0
 20 47  1  0
 22 48  1  0
 22 49  1  0
 23 50  1  0
 24 51  1  0
 24 52  1  0
 24 53  1  0
 25 54  1  0
 26 55  1  0
 26 56  1  0
 26 57  1  0
 27 58  1  0
 27 59  1  0
 28 60  1  0
 29 61  1  0
 30 62  1  0
 32 63  1  0
 33 64  1  0
 34 65  1  0
M  END
>  <Energy>  (1) 
72.71

>  <GasteigerCharges>  (1) 
-0.4830, 0.1337, 0.0538, -0.1096, 0.0758, -0.0303, -0.0541, -0.0199, 0.1151, -0.5080, -0.0199, -0.0541, 0.1400, -0.0059, -0.0516, -0.0196, 0.1189, -0.4923, 0.1009, 0.0325, -0.2994, 0.0012, -0.0277, -0.0610, -0.0277, -0.0610, 0.0012, -0.0196, -0.0516, -0.0028, 0.1165, -0.5079, -0.0165, -0.0151, 0.0514, 0.0627, 0.0662, 0.2931, 0.0662, 0.0627, 0.0812, 0.0628, 0.0662, 0.0719, 0.0719, 0.0466, 0.0466, 0.0433, 0.0433, 0.0316, 0.0234, 0.0234, 0.0234, 0.0316, 0.0234, 0.0234, 0.0234, 0.0433, 0.0433, 0.0662, 0.0628, 0.0675, 0.2931, 0.0663, 0.0664

