Conformer_2
     RDKit          3D

 47 48  0  0  0  0  0  0  0  0999 V2000
   -0.1058   -3.2788   -1.1180 C   0  0  0  0  0  0  0  0  0  0  0  0
    0.6992   -2.5551   -2.0430 O   0  0  0  0  0  0  0  0  0  0  0  0
    1.5395   -1.4830   -1.7017 C   0  0  0  0  0  0  0  0  0  0  0  0
    2.2596   -0.8369   -2.7219 C   0  0  0  0  0  0  0  0  0  0  0  0
    3.1064    0.2298   -2.4121 C   0  0  0  0  0  0  0  0  0  0  0  0
    3.2371    0.6697   -1.0943 C   0  0  0  0  0  0  0  0  0  0  0  0
    2.5146    0.0545   -0.0618 C   0  0  0  0  0  0  0  0  0  0  0  0
    1.6779   -1.0367   -0.3715 C   0  0  0  0  0  0  0  0  0  0  0  0
    2.6708    0.5745    1.3197 C   0  0  0  0  0  0  0  0  0  0  0  0
    1.7469    0.4150    2.2768 C   0  0  0  0  0  0  0  0  0  0  0  0
    1.8730    1.0411    3.6090 C   0  0  0  0  0  0  0  0  0  0  0  0
    2.9584    1.5731    3.9690 O   0  0  0  0  0  0  0  0  0  0  0  0
    0.6818    1.1094    4.5200 C   0  0  0  0  0  0  0  0  0  0  0  0
   -0.1816    2.2788    4.1462 C   0  0  0  0  0  0  0  0  0  0  0  0
   -0.1658    3.3169    4.8623 O   0  0  0  0  0  0  0  0  0  0  0  0
   -0.9931    2.2257    2.9144 C   0  0  0  0  0  0  0  0  0  0  0  0
   -1.6224    3.2970    2.4158 C   0  0  0  0  0  0  0  0  0  0  0  0
   -2.3423    3.2691    1.1212 C   0  0  0  0  0  0  0  0  0  0  0  0
   -1.9482    2.4165    0.0709 C   0  0  0  0  0  0  0  0  0  0  0  0
   -2.6322    2.4278   -1.1608 C   0  0  0  0  0  0  0  0  0  0  0  0
   -3.7148    3.3084   -1.3363 C   0  0  0  0  0  0  0  0  0  0  0  0
   -4.0931    4.1678   -0.3005 C   0  0  0  0  0  0  0  0  0  0  0  0
   -3.4079    4.1557    0.9158 C   0  0  0  0  0  0  0  0  0  0  0  0
   -4.4240    3.3481   -2.5367 O   0  0  0  0  0  0  0  0  0  0  0  0
   -2.2604    1.5882   -2.2238 O   0  0  0  0  0  0  0  0  0  0  0  0
   -1.1790    0.6618   -2.1822 C   0  0  0  0  0  0  0  0  0  0  0  0
    2.1463   -1.2419   -4.0518 O   0  0  0  0  0  0  0  0  0  0  0  0
   -0.8252   -2.5948   -0.6202 H   0  0  0  0  0  0  0  0  0  0  0  0
    0.5361   -3.7771   -0.3612 H   0  0  0  0  0  0  0  0  0  0  0  0
   -0.6766   -4.0562   -1.6657 H   0  0  0  0  0  0  0  0  0  0  0  0
    3.6631    0.7237   -3.1984 H   0  0  0  0  0  0  0  0  0  0  0  0
    3.8943    1.5047   -0.8827 H   0  0  0  0  0  0  0  0  0  0  0  0
    1.1504   -1.5509    0.4171 H   0  0  0  0  0  0  0  0  0  0  0  0
    3.5425    1.1839    1.5294 H   0  0  0  0  0  0  0  0  0  0  0  0
    0.8343   -0.1239    2.0670 H   0  0  0  0  0  0  0  0  0  0  0  0
    1.0203    1.2086    5.5745 H   0  0  0  0  0  0  0  0  0  0  0  0
    0.0924    0.1698    4.4480 H   0  0  0  0  0  0  0  0  0  0  0  0
   -1.0523    1.2790    2.3958 H   0  0  0  0  0  0  0  0  0  0  0  0
   -1.6212    4.2252    2.9754 H   0  0  0  0  0  0  0  0  0  0  0  0
   -1.0935    1.7684    0.2004 H   0  0  0  0  0  0  0  0  0  0  0  0
   -4.9217    4.8505   -0.4404 H   0  0  0  0  0  0  0  0  0  0  0  0
   -3.7171    4.8330    1.7027 H   0  0  0  0  0  0  0  0  0  0  0  0
   -4.1931    2.7492   -3.3203 H   0  0  0  0  0  0  0  0  0  0  0  0
   -0.2218    1.1984   -2.0104 H   0  0  0  0  0  0  0  0  0  0  0  0
   -1.1171    0.1303   -3.1538 H   0  0  0  0  0  0  0  0  0  0  0  0
   -1.3470   -0.0862   -1.3790 H   0  0  0  0  0  0  0  0  0  0  0  0
    1.5452   -2.0066   -4.3342 H   0  0  0  0  0  0  0  0  0  0  0  0
  1  2  1  0
  2  3  1  0
  3  4  2  0
  4  5  1  0
  5  6  2  0
  6  7  1  0
  7  8  2  0
  7  9  1  0
  9 10  2  0
 10 11  1  0
 11 12  2  0
 11 13  1  0
 13 14  1  0
 14 15  2  0
 14 16  1  0
 16 17  2  0
 17 18  1  0
 18 19  2  0
 19 20  1  0
 20 21  2  0
 21 22  1  0
 22 23  2  0
 21 24  1  0
 20 25  1  0
 25 26  1  0
  4 27  1  0
  8  3  1  0
 23 18  1  0
  1 28  1  0
  1 29  1  0
  1 30  1  0
  5 31  1  0
  6 32  1  0
  8 33  1  0
  9 34  1  0
 10 35  1  0
 13 36  1  0
 13 37  1  0
 16 38  1  0
 17 39  1  0
 19 40  1  0
 22 41  1  0
 23 42  1  0
 24 43  1  0
 26 44  1  0
 26 45  1  0
 26 46  1  0
 27 47  1  0
M  END
>  <Energy>  (1) 
44.75

>  <GasteigerCharges>  (1) 
0.0777, -0.4929, 0.1606, 0.1572, -0.0157, -0.0510, -0.0216, -0.0088, -0.0513, -0.0179, 0.1629, -0.2944, 0.0732, 0.1629, -0.2944, -0.0179, -0.0513, -0.0216, -0.0088, 0.1606, 0.1572, -0.0157, -0.0510, -0.5043, -0.4929, 0.0777, -0.5043, 0.0669, 0.0669, 0.0669, 0.0664, 0.0630, 0.0670, 0.0630, 0.0661, 0.0435, 0.0435, 0.0661, 0.0630, 0.0670, 0.0664, 0.0630, 0.2933, 0.0669, 0.0669, 0.0669, 0.2933

