Conformer_18
     RDKit          3D

 43 44  0  0  0  0  0  0  0  0999 V2000
    0.3065   -2.8182    1.7892 C   0  0  0  0  0  0  0  0  0  0  0  0
    0.3344   -2.7177    3.2094 O   0  0  0  0  0  0  0  0  0  0  0  0
    0.1644   -1.5232    3.9283 C   0  0  0  0  0  0  0  0  0  0  0  0
    0.2081   -1.5661    5.3334 C   0  0  0  0  0  0  0  0  0  0  0  0
    0.0263   -0.3958    6.0750 C   0  0  0  0  0  0  0  0  0  0  0  0
   -0.1926    0.8230    5.4314 C   0  0  0  0  0  0  0  0  0  0  0  0
   -0.2184    0.8941    4.0316 C   0  0  0  0  0  0  0  0  0  0  0  0
   -0.0535   -0.2887    3.2835 C   0  0  0  0  0  0  0  0  0  0  0  0
   -0.4690    2.2062    3.3887 C   0  0  0  0  0  0  0  0  0  0  0  0
   -0.0533    2.5075    2.1513 C   0  0  0  0  0  0  0  0  0  0  0  0
   -0.3465    3.8059    1.5116 C   0  0  0  0  0  0  0  0  0  0  0  0
   -0.9860    4.6988    2.1319 O   0  0  0  0  0  0  0  0  0  0  0  0
    0.0723    4.0527    0.0929 C   0  0  0  0  0  0  0  0  0  0  0  0
   -0.8593    3.3479   -0.8476 C   0  0  0  0  0  0  0  0  0  0  0  0
   -1.8731    3.9582   -1.2846 O   0  0  0  0  0  0  0  0  0  0  0  0
   -0.6181    1.9351   -1.2050 C   0  0  0  0  0  0  0  0  0  0  0  0
   -1.4825    1.2243   -1.9421 C   0  0  0  0  0  0  0  0  0  0  0  0
   -1.2817   -0.2039   -2.2901 C   0  0  0  0  0  0  0  0  0  0  0  0
   -0.4588   -1.0601   -1.5295 C   0  0  0  0  0  0  0  0  0  0  0  0
   -0.3130   -2.4037   -1.8885 C   0  0  0  0  0  0  0  0  0  0  0  0
   -0.9931   -2.9142   -3.0009 C   0  0  0  0  0  0  0  0  0  0  0  0
   -1.8228   -2.0757   -3.7499 C   0  0  0  0  0  0  0  0  0  0  0  0
   -1.9712   -0.7317   -3.3947 C   0  0  0  0  0  0  0  0  0  0  0  0
   -0.8544   -4.2512   -3.3666 O   0  0  0  0  0  0  0  0  0  0  0  0
    0.4264   -2.7653    6.0115 O   0  0  0  0  0  0  0  0  0  0  0  0
    0.4716   -3.8754    1.4969 H   0  0  0  0  0  0  0  0  0  0  0  0
    1.1138   -2.1976    1.3461 H   0  0  0  0  0  0  0  0  0  0  0  0
   -0.6827   -2.4941    1.4024 H   0  0  0  0  0  0  0  0  0  0  0  0
    0.0535   -0.4319    7.1568 H   0  0  0  0  0  0  0  0  0  0  0  0
   -0.3321    1.7160    6.0288 H   0  0  0  0  0  0  0  0  0  0  0  0
   -0.1227   -0.2556    2.2062 H   0  0  0  0  0  0  0  0  0  0  0  0
   -0.9862    2.9599    3.9714 H   0  0  0  0  0  0  0  0  0  0  0  0
    0.5255    1.7912    1.5848 H   0  0  0  0  0  0  0  0  0  0  0  0
    1.1141    3.6963   -0.0595 H   0  0  0  0  0  0  0  0  0  0  0  0
    0.0632    5.1441   -0.1201 H   0  0  0  0  0  0  0  0  0  0  0  0
    0.2978    1.4824   -0.8523 H   0  0  0  0  0  0  0  0  0  0  0  0
   -2.3659    1.7144   -2.3349 H   0  0  0  0  0  0  0  0  0  0  0  0
    0.0544   -0.7093   -0.6451 H   0  0  0  0  0  0  0  0  0  0  0  0
    0.3232   -3.0494   -1.2967 H   0  0  0  0  0  0  0  0  0  0  0  0
   -2.3548   -2.4663   -4.6082 H   0  0  0  0  0  0  0  0  0  0  0  0
   -2.6203   -0.1001   -3.9891 H   0  0  0  0  0  0  0  0  0  0  0  0
   -0.2617   -4.8846   -2.8427 H   0  0  0  0  0  0  0  0  0  0  0  0
    0.5636   -3.6433    5.5256 H   0  0  0  0  0  0  0  0  0  0  0  0
  1  2  1  0
  2  3  1  0
  3  4  2  0
  4  5  1  0
  5  6  2  0
  6  7  1  0
  7  8  2  0
  7  9  1  0
  9 10  2  0
 10 11  1  0
 11 12  2  0
 11 13  1  0
 13 14  1  0
 14 15  2  0
 14 16  1  0
 16 17  2  0
 17 18  1  0
 18 19  2  0
 19 20  1  0
 20 21  2  0
 21 22  1  0
 22 23  2  0
 21 24  1  0
  4 25  1  0
  8  3  1  0
 23 18  1  0
  1 26  1  0
  1 27  1  0
  1 28  1  0
  5 29  1  0
  6 30  1  0
  8 31  1  0
  9 32  1  0
 10 33  1  0
 13 34  1  0
 13 35  1  0
 16 36  1  0
 17 37  1  0
 19 38  1  0
 20 39  1  0
 22 40  1  0
 23 41  1  0
 24 42  1  0
 25 43  1  0
M  END
>  <Energy>  (1) 
41.40

>  <GasteigerCharges>  (1) 
0.0777, -0.4929, 0.1606, 0.1572, -0.0157, -0.0510, -0.0216, -0.0088, -0.0513, -0.0179, 0.1629, -0.2944, 0.0732, 0.1629, -0.2944, -0.0179, -0.0514, -0.0253, -0.0513, -0.0196, 0.1151, -0.0196, -0.0513, -0.5080, -0.5043, 0.0669, 0.0669, 0.0669, 0.0664, 0.0630, 0.0670, 0.0630, 0.0661, 0.0435, 0.0435, 0.0661, 0.0630, 0.0630, 0.0662, 0.0662, 0.0630, 0.2931, 0.2933

