Conformer_1
     RDKit          3D

 43 44  0  0  0  0  0  0  0  0999 V2000
    2.3348   -1.6362   -1.7967 C   0  0  0  0  0  0  0  0  0  0  0  0
    2.1071   -3.0305   -1.9800 O   0  0  0  0  0  0  0  0  0  0  0  0
    0.9975   -3.7300   -1.4774 C   0  0  0  0  0  0  0  0  0  0  0  0
    0.8855   -5.1073   -1.7404 C   0  0  0  0  0  0  0  0  0  0  0  0
   -0.2188   -5.8226   -1.2676 C   0  0  0  0  0  0  0  0  0  0  0  0
   -1.2136   -5.1817   -0.5269 C   0  0  0  0  0  0  0  0  0  0  0  0
   -1.1098   -3.8158   -0.2320 C   0  0  0  0  0  0  0  0  0  0  0  0
   -0.0069   -3.0904   -0.7246 C   0  0  0  0  0  0  0  0  0  0  0  0
   -2.1936   -3.1612    0.5374 C   0  0  0  0  0  0  0  0  0  0  0  0
   -1.9853   -2.0802    1.2992 C   0  0  0  0  0  0  0  0  0  0  0  0
   -3.0805   -1.3569    1.9748 C   0  0  0  0  0  0  0  0  0  0  0  0
   -4.2534   -1.8204    1.9757 O   0  0  0  0  0  0  0  0  0  0  0  0
   -2.8088   -0.0301    2.6223 C   0  0  0  0  0  0  0  0  0  0  0  0
   -2.5344    1.0057    1.5709 C   0  0  0  0  0  0  0  0  0  0  0  0
   -3.4866    1.7029    1.1259 O   0  0  0  0  0  0  0  0  0  0  0  0
   -1.1731    1.1494    1.0156 C   0  0  0  0  0  0  0  0  0  0  0  0
   -0.9327    1.8037   -0.1284 C   0  0  0  0  0  0  0  0  0  0  0  0
    0.4051    1.8645   -0.7664 C   0  0  0  0  0  0  0  0  0  0  0  0
    1.6003    1.7080   -0.0353 C   0  0  0  0  0  0  0  0  0  0  0  0
    2.8380    1.7598   -0.6839 C   0  0  0  0  0  0  0  0  0  0  0  0
    2.9013    1.9750   -2.0661 C   0  0  0  0  0  0  0  0  0  0  0  0
    1.7215    2.1485   -2.7944 C   0  0  0  0  0  0  0  0  0  0  0  0
    0.4822    2.0997   -2.1494 C   0  0  0  0  0  0  0  0  0  0  0  0
    4.1287    2.0194   -2.7230 O   0  0  0  0  0  0  0  0  0  0  0  0
    1.8598   -5.7819   -2.4759 O   0  0  0  0  0  0  0  0  0  0  0  0
    1.5078   -1.0503   -2.2507 H   0  0  0  0  0  0  0  0  0  0  0  0
    2.4202   -1.4013   -0.7147 H   0  0  0  0  0  0  0  0  0  0  0  0
    3.2839   -1.3538   -2.2965 H   0  0  0  0  0  0  0  0  0  0  0  0
   -0.3071   -6.8810   -1.4779 H   0  0  0  0  0  0  0  0  0  0  0  0
   -2.0617   -5.7560   -0.1740 H   0  0  0  0  0  0  0  0  0  0  0  0
    0.0544   -2.0260   -0.5493 H   0  0  0  0  0  0  0  0  0  0  0  0
   -3.1874   -3.5898    0.4790 H   0  0  0  0  0  0  0  0  0  0  0  0
   -0.9832   -1.6923    1.4176 H   0  0  0  0  0  0  0  0  0  0  0  0
   -3.6828    0.2812    3.2351 H   0  0  0  0  0  0  0  0  0  0  0  0
   -1.9383   -0.1208    3.3073 H   0  0  0  0  0  0  0  0  0  0  0  0
   -0.3714    0.6334    1.5249 H   0  0  0  0  0  0  0  0  0  0  0  0
   -1.7649    2.2435   -0.6663 H   0  0  0  0  0  0  0  0  0  0  0  0
    1.5898    1.5653    1.0363 H   0  0  0  0  0  0  0  0  0  0  0  0
    3.7475    1.6340   -0.1105 H   0  0  0  0  0  0  0  0  0  0  0  0
    1.7646    2.3188   -3.8627 H   0  0  0  0  0  0  0  0  0  0  0  0
   -0.4199    2.2309   -2.7347 H   0  0  0  0  0  0  0  0  0  0  0  0
    5.0014    1.8950   -2.2231 H   0  0  0  0  0  0  0  0  0  0  0  0
    2.6795   -5.3138   -2.8432 H   0  0  0  0  0  0  0  0  0  0  0  0
  1  2  1  0
  2  3  1  0
  3  4  2  0
  4  5  1  0
  5  6  2  0
  6  7  1  0
  7  8  2  0
  7  9  1  0
  9 10  2  0
 10 11  1  0
 11 12  2  0
 11 13  1  0
 13 14  1  0
 14 15  2  0
 14 16  1  0
 16 17  2  0
 17 18  1  0
 18 19  2  0
 19 20  1  0
 20 21  2  0
 21 22  1  0
 22 23  2  0
 21 24  1  0
  4 25  1  0
  8  3  1  0
 23 18  1  0
  1 26  1  0
  1 27  1  0
  1 28  1  0
  5 29  1  0
  6 30  1  0
  8 31  1  0
  9 32  1  0
 10 33  1  0
 13 34  1  0
 13 35  1  0
 16 36  1  0
 17 37  1  0
 19 38  1  0
 20 39  1  0
 22 40  1  0
 23 41  1  0
 24 42  1  0
 25 43  1  0
M  END
>  <Energy>  (1) 
41.41

>  <GasteigerCharges>  (1) 
0.0777, -0.4929, 0.1606, 0.1572, -0.0157, -0.0510, -0.0216, -0.0088, -0.0513, -0.0179, 0.1629, -0.2944, 0.0732, 0.1629, -0.2944, -0.0179, -0.0514, -0.0253, -0.0513, -0.0196, 0.1151, -0.0196, -0.0513, -0.5080, -0.5043, 0.0669, 0.0669, 0.0669, 0.0664, 0.0630, 0.0670, 0.0630, 0.0661, 0.0435, 0.0435, 0.0661, 0.0630, 0.0630, 0.0662, 0.0662, 0.0630, 0.2931, 0.2933

