Conformer_0
     RDKit          3D

 39 40  0  0  0  0  0  0  0  0999 V2000
   -3.2790    3.5308    0.7884 C   0  0  0  0  0  0  0  0  0  0  0  0
   -3.5458    4.3127   -0.3394 C   0  0  0  0  0  0  0  0  0  0  0  0
   -3.8067    3.7059   -1.5707 C   0  0  0  0  0  0  0  0  0  0  0  0
   -3.8039    2.3091   -1.6702 C   0  0  0  0  0  0  0  0  0  0  0  0
   -3.5366    1.5232   -0.5448 C   0  0  0  0  0  0  0  0  0  0  0  0
   -3.2582    2.1285    0.6980 C   0  0  0  0  0  0  0  0  0  0  0  0
   -2.9779    1.3417    1.9244 C   0  0  0  0  0  0  0  0  0  0  0  0
   -2.5363    0.0762    1.9106 C   0  0  0  0  0  0  0  0  0  0  0  0
   -2.2424   -0.6693    3.1516 C   0  0  0  0  0  0  0  0  0  0  0  0
   -2.4342   -0.1403    4.2805 O   0  0  0  0  0  0  0  0  0  0  0  0
   -1.6667   -2.0515    3.0786 C   0  0  0  0  0  0  0  0  0  0  0  0
   -0.1756   -1.9805    2.9412 C   0  0  0  0  0  0  0  0  0  0  0  0
    0.5417   -2.0206    3.9781 O   0  0  0  0  0  0  0  0  0  0  0  0
    0.4368   -1.8132    1.6074 C   0  0  0  0  0  0  0  0  0  0  0  0
    1.7619   -1.7063    1.4369 C   0  0  0  0  0  0  0  0  0  0  0  0
    2.4067   -1.5301    0.1127 C   0  0  0  0  0  0  0  0  0  0  0  0
    3.7600   -1.8805   -0.0298 C   0  0  0  0  0  0  0  0  0  0  0  0
    4.4107   -1.7206   -1.2567 C   0  0  0  0  0  0  0  0  0  0  0  0
    3.7232   -1.1977   -2.3551 C   0  0  0  0  0  0  0  0  0  0  0  0
    2.3789   -0.8292   -2.2209 C   0  0  0  0  0  0  0  0  0  0  0  0
    1.7239   -0.9883   -0.9957 C   0  0  0  0  0  0  0  0  0  0  0  0
    4.3842   -1.0444   -3.5717 O   0  0  0  0  0  0  0  0  0  0  0  0
   -4.0714    4.4974   -2.6861 O   0  0  0  0  0  0  0  0  0  0  0  0
   -3.0792    4.0228    1.7327 H   0  0  0  0  0  0  0  0  0  0  0  0
   -3.5511    5.3921   -0.2555 H   0  0  0  0  0  0  0  0  0  0  0  0
   -4.0164    1.8306   -2.6179 H   0  0  0  0  0  0  0  0  0  0  0  0
   -3.5741    0.4483   -0.6526 H   0  0  0  0  0  0  0  0  0  0  0  0
   -3.0968    1.8454    2.8768 H   0  0  0  0  0  0  0  0  0  0  0  0
   -2.3491   -0.4268    0.9724 H   0  0  0  0  0  0  0  0  0  0  0  0
   -2.1042   -2.6028    2.2181 H   0  0  0  0  0  0  0  0  0  0  0  0
   -1.9314   -2.6169    3.9986 H   0  0  0  0  0  0  0  0  0  0  0  0
   -0.2260   -1.7977    0.7536 H   0  0  0  0  0  0  0  0  0  0  0  0
    2.4116   -1.7883    2.3008 H   0  0  0  0  0  0  0  0  0  0  0  0
    4.3126   -2.2871    0.8086 H   0  0  0  0  0  0  0  0  0  0  0  0
    5.4516   -2.0025   -1.3533 H   0  0  0  0  0  0  0  0  0  0  0  0
    1.8424   -0.4112   -3.0634 H   0  0  0  0  0  0  0  0  0  0  0  0
    0.6957   -0.6624   -0.9197 H   0  0  0  0  0  0  0  0  0  0  0  0
    3.9131   -0.6690   -4.3865 H   0  0  0  0  0  0  0  0  0  0  0  0
   -4.2662    4.0874   -3.5922 H   0  0  0  0  0  0  0  0  0  0  0  0
  1  2  2  0
  2  3  1  0
  3  4  2  0
  4  5  1  0
  5  6  2  0
  6  7  1  0
  7  8  2  0
  8  9  1  0
  9 10  2  0
  9 11  1  0
 11 12  1  0
 12 13  2  0
 12 14  1  0
 14 15  2  0
 15 16  1  0
 16 17  2  0
 17 18  1  0
 18 19  2  0
 19 20  1  0
 20 21  2  0
 19 22  1  0
  3 23  1  0
  6  1  1  0
 21 16  1  0
  1 24  1  0
  2 25  1  0
  4 26  1  0
  5 27  1  0
  7 28  1  0
  8 29  1  0
 11 30  1  0
 11 31  1  0
 14 32  1  0
 15 33  1  0
 17 34  1  0
 18 35  1  0
 20 36  1  0
 21 37  1  0
 22 38  1  0
 23 39  1  0
M  END
>  <Energy>  (1) 
39.02

>  <GasteigerCharges>  (1) 
-0.0513, -0.0196, 0.1151, -0.0196, -0.0513, -0.0253, -0.0514, -0.0179, 0.1629, -0.2944, 0.0732, 0.1629, -0.2944, -0.0179, -0.0514, -0.0253, -0.0513, -0.0196, 0.1151, -0.0196, -0.0513, -0.5080, -0.5080, 0.0630, 0.0662, 0.0662, 0.0630, 0.0630, 0.0661, 0.0435, 0.0435, 0.0661, 0.0630, 0.0630, 0.0662, 0.0662, 0.0630, 0.2931, 0.2931

