Conformer_8
     RDKit          3D

 47 48  0  0  0  0  0  0  0  0999 V2000
   -3.9279    1.5947    0.5695 C   0  0  0  0  0  0  0  0  0  0  0  0
   -3.3449    1.1084    1.7741 O   0  0  0  0  0  0  0  0  0  0  0  0
   -2.0781    1.4796    2.2519 C   0  0  0  0  0  0  0  0  0  0  0  0
   -1.6183    0.8974    3.4403 C   0  0  0  0  0  0  0  0  0  0  0  0
   -0.3621    1.2431    3.9514 C   0  0  0  0  0  0  0  0  0  0  0  0
    0.4443    2.1614    3.2773 C   0  0  0  0  0  0  0  0  0  0  0  0
    0.0128    2.7433    2.0760 C   0  0  0  0  0  0  0  0  0  0  0  0
   -1.2622    2.4091    1.5757 C   0  0  0  0  0  0  0  0  0  0  0  0
    0.9165    3.6978    1.3865 C   0  0  0  0  0  0  0  0  0  0  0  0
    0.8524    3.9579    0.0736 C   0  0  0  0  0  0  0  0  0  0  0  0
    1.8358    4.8236   -0.6093 C   0  0  0  0  0  0  0  0  0  0  0  0
    2.6474    5.5233    0.0559 O   0  0  0  0  0  0  0  0  0  0  0  0
    1.9213    4.8219   -2.1080 C   0  0  0  0  0  0  0  0  0  0  0  0
    2.7520    3.6611   -2.5716 C   0  0  0  0  0  0  0  0  0  0  0  0
    3.9294    3.8619   -2.9768 O   0  0  0  0  0  0  0  0  0  0  0  0
    2.2058    2.2921   -2.4928 C   0  0  0  0  0  0  0  0  0  0  0  0
    2.9554    1.2013   -2.6942 C   0  0  0  0  0  0  0  0  0  0  0  0
    2.4333   -0.1721   -2.5036 C   0  0  0  0  0  0  0  0  0  0  0  0
    1.4182   -0.4573   -1.5691 C   0  0  0  0  0  0  0  0  0  0  0  0
    0.9573   -1.7761   -1.3866 C   0  0  0  0  0  0  0  0  0  0  0  0
    1.5281   -2.8135   -2.1458 C   0  0  0  0  0  0  0  0  0  0  0  0
    2.5487   -2.5327   -3.0590 C   0  0  0  0  0  0  0  0  0  0  0  0
    3.0048   -1.2245   -3.2313 C   0  0  0  0  0  0  0  0  0  0  0  0
    1.0977   -4.1324   -2.0019 O   0  0  0  0  0  0  0  0  0  0  0  0
   -0.0535   -2.0877   -0.4623 O   0  0  0  0  0  0  0  0  0  0  0  0
   -0.7047   -1.1366    0.3748 C   0  0  0  0  0  0  0  0  0  0  0  0
   -2.4189   -0.0267    4.1097 O   0  0  0  0  0  0  0  0  0  0  0  0
   -4.0631    2.6953    0.6278 H   0  0  0  0  0  0  0  0  0  0  0  0
   -3.2867    1.3327   -0.2985 H   0  0  0  0  0  0  0  0  0  0  0  0
   -4.9219    1.1221    0.4317 H   0  0  0  0  0  0  0  0  0  0  0  0
   -0.0071    0.7966    4.8715 H   0  0  0  0  0  0  0  0  0  0  0  0
    1.4160    2.4072    3.6885 H   0  0  0  0  0  0  0  0  0  0  0  0
   -1.6296    2.8807    0.6773 H   0  0  0  0  0  0  0  0  0  0  0  0
    1.7178    4.1381    1.9691 H   0  0  0  0  0  0  0  0  0  0  0  0
    0.1095    3.4710   -0.5414 H   0  0  0  0  0  0  0  0  0  0  0  0
    0.9030    4.7538   -2.5480 H   0  0  0  0  0  0  0  0  0  0  0  0
    2.3715    5.7760   -2.4597 H   0  0  0  0  0  0  0  0  0  0  0  0
    1.1603    2.1855   -2.2395 H   0  0  0  0  0  0  0  0  0  0  0  0
    3.9835    1.3125   -3.0186 H   0  0  0  0  0  0  0  0  0  0  0  0
    1.0095    0.3390   -0.9639 H   0  0  0  0  0  0  0  0  0  0  0  0
    2.9922   -3.3338   -3.6367 H   0  0  0  0  0  0  0  0  0  0  0  0
    3.7990   -1.0316   -3.9425 H   0  0  0  0  0  0  0  0  0  0  0  0
    0.3631   -4.3932   -1.3551 H   0  0  0  0  0  0  0  0  0  0  0  0
    0.0334   -0.6492    1.0466 H   0  0  0  0  0  0  0  0  0  0  0  0
   -1.4604   -1.6571    0.9979 H   0  0  0  0  0  0  0  0  0  0  0  0
   -1.2208   -0.3726   -0.2440 H   0  0  0  0  0  0  0  0  0  0  0  0
   -2.1151   -0.4666    4.9705 H   0  0  0  0  0  0  0  0  0  0  0  0
  1  2  1  0
  2  3  1  0
  3  4  2  0
  4  5  1  0
  5  6  2  0
  6  7  1  0
  7  8  2  0
  7  9  1  0
  9 10  2  0
 10 11  1  0
 11 12  2  0
 11 13  1  0
 13 14  1  0
 14 15  2  0
 14 16  1  0
 16 17  2  0
 17 18  1  0
 18 19  2  0
 19 20  1  0
 20 21  2  0
 21 22  1  0
 22 23  2  0
 21 24  1  0
 20 25  1  0
 25 26  1  0
  4 27  1  0
  8  3  1  0
 23 18  1  0
  1 28  1  0
  1 29  1  0
  1 30  1  0
  5 31  1  0
  6 32  1  0
  8 33  1  0
  9 34  1  0
 10 35  1  0
 13 36  1  0
 13 37  1  0
 16 38  1  0
 17 39  1  0
 19 40  1  0
 22 41  1  0
 23 42  1  0
 24 43  1  0
 26 44  1  0
 26 45  1  0
 26 46  1  0
 27 47  1  0
M  END
>  <Energy>  (1) 
44.39

>  <GasteigerCharges>  (1) 
0.0777, -0.4929, 0.1606, 0.1572, -0.0157, -0.0510, -0.0216, -0.0088, -0.0513, -0.0179, 0.1629, -0.2944, 0.0732, 0.1629, -0.2944, -0.0179, -0.0513, -0.0216, -0.0088, 0.1606, 0.1572, -0.0157, -0.0510, -0.5043, -0.4929, 0.0777, -0.5043, 0.0669, 0.0669, 0.0669, 0.0664, 0.0630, 0.0670, 0.0630, 0.0661, 0.0435, 0.0435, 0.0661, 0.0630, 0.0670, 0.0664, 0.0630, 0.2933, 0.0669, 0.0669, 0.0669, 0.2933

